Test/data1.m
bus=[
  1  1.06  0   0      0      3;
  2  1.043 0   -0.217  0      2;
  3  1     0   -0.024  -0.012  1;
  4  1     0   -0.076  -0.016  1;
  5  1.01  0   -0.942  0      2;
  6  1     0   -0      0      1;
  7  1     0   -0.228  -0.109  1;
  8  1.002 0   -0.3    0      2;
  9  1     0   -0      0      1;
  10 1     0   -0.028  -0.020  1;
  11 1.082 0   -0      0      2;
  12 1     0   -0.112  -0.075  1;
  13 1.071 0   0      0      2;
  14 1     0   -0.062  -0.016    1;
  15 1     0   -0.082  -0.025    1;
  16 1     0   -0.035  -0.018    1;
  17 1     0   -0.090  -0.058    1;
  18 1     0   -0.032  -0.009    1;
  19 1     0   -0.095  -0.034    1;
  20 1     0   -0.022  -0.007    1;
  21 1     0   -0.175  -0.112   1;
  22 1     0   -0      0      1;
  23 1     0   -0.032  -0.016    1;
  24 1     0   -0.087  -0.067    1;
  25 1     0   -0      0      1;
  26 1     0   -0.035  -0.023    1;
  27 1     0   -0      0      1;
  28 1     0   -0      0      1;
  29 1     0   -0.024  -0.009  1;
  30 1     0   -0.106  -0.019  1;
]

line=[	
1	2	0.0192	0.0575	0	0.0528	0;
1	3	0.0452	0.1652	0	0.0408	0;
2	4	0.057	0.1737	0	0.0368	0;
3	4	0.0132	0.0379	0	0.0084	0;
2	5	0.0472	0.1983	0	0.0418	0;
2	6	0.0581	0.1763	0	0.0374	0;
4	6	0.0119	0.0414	0	0.009	0;
5	7	0.046	0.116	0	0.0204	0;
6	7	0.0267	0.082	0	0.017	0;	
6	8	0.012	0.042	0	0.009	0;
6	9	0	0.208	0	0	0.978;
6	10	0	0.556	0	0	0.969;
9	11	0	0.208	0	0	0;
9	10	0	0.11	0	0	0;
4	12	0	0.256	0	0	0.932;
12	13	0	0.14	0	0	0;
12	14	0.1231	0.2559	0	0	0;
12	15	0.0662	0.1304	0	0	0;
12	16	0.0945	0.1987	0	0	0;
14	15	0.221	0.1997	0	0	0;
16	17	0.0524	0.1923	0	0	0;
15	18	0.1073	0.2185	0	0	0;
18	19	0.0639	0.1292	0	0	0;
19	20	0.034	0.068	0	0	0;
10	20	0.0936	0.209	0	0	0;
10	17	0.0324	0.0845	0	0	0;
10	21	0.0348	0.0749	0	0	0;
10	22	0.0727	0.1499	0	0	0;
21	22	0.0116	0.0236	0	0	0;
15	23	0.1	0.202	0	0	0;
22	24	0.115	0.179	0	0	0;
23	24	0.132	0.27	0	0	0;
24	25	0.1885	0.3292	0	0	0;
25	26	0.2544	0.38	0	0	0;
25	27	0.1093	0.2087	0	0	0;
28	27	0	0.396	0	0	0.968;
27	29	0.2198	0.4153	0	0	0;
27	30	0.3202	0.6027	0	0	0;
29	30	0.2399	0.4533	0	0	0;
8	28	0.0636	0.2	0	0.0428	0;
6	28	0.0169	0.0599	0	0.013	0;
10	0	0	0	0	0.19	0;
24	0	0	0	0	0.043	0;
]